                  BRITTAINS                                                                                                                                                                                                                                                                              FOB flit YOURWEATHERWEAR
                   SALE MUST END                                                                                                                                                                                                                                                                      OANNIMAC.TELEMAC, FOURSEASONS,
                                                                                                                                                                                                                                                                                                            : . BURBERRY, elc. :
                      FEB 14th                                                                                                                                                                                                                                                                        - Bargains in a lt departments
                                                                                                                                                                                                                                                                                                         1 1 1 3 W ELLGATE ,
                       Simply the best                                                                                                                                                                                                                                                                 T jE L E P H O W E f 8 2 7 7 6 -



                                                                                                                                                                                                                                                                                                           FRI.FEB2,1
                  ESTABLISHED 1858                                 ' a ls b D a lib n /T h r y b e r g h , B ram ley, Bra'tthWeli; T ickhill, H ellaby, S ta ln tb n . R a v e n fie td , h io o tb n R o b e rts, E a st H e r iin g th b r p e a n d S u n h y s id e                     TEL ROTHERHAM 364721



                      Life’s just 100 gr
                      K im b erw o rth               c o u p le                                                               " W e c a n p a y o f f t h e £28,0 00
                  C h ris a n d M e la n ie H eap                            S to ry P a u lin e Kelly                        m o r t g a g e — b u t w e W o n 't b e
                  h a v e . s c o o p e d £ 1 0 0 ,0 0 0 in a '               P ic tu re : Ron L ane                          m o v in g . W e like it h e r e a n d h a v e 1
                  b i n g o b o n a n z a .'                                                                                  a lo t o f p l a n s f o r t h e h o u s e . ”
                     T h e c o u p l e , b o t h 26; w e r e                B u t t h e n e w s ' h a s a lr e a d y               T he couple, w h o b o th w e n t to
              ' s t u n n e d t o g e t a p h o n e call f r o m        m e a n t t h a t t h e c o u p l e 's p la n s         K im b e rw o rth C o m p re h e n siv e
V I,     :       a n a t i o n a l n e w s p a p e r re p re s e n -,   h a v e c h a n g e d : In s t e a d o f lo o k ­       a n d m a r r i e d . a t K i m b e r w o r t h 's
                 t a t i v e l a s t F r i d a y te l l i n g t h e m ; ing f o r a j o b , M ela nie . w ill b e               S t T h o m a s ’ C h u rc h tW o - a n d - a -
                 theY ^had h i t t h e j a c k p o t in t h e           stay in g -a t h o m e t o ca re fo r her               h a lf y e a r s 'a g o , a r e a l s o planning,
                  D a ily M ir r o r c o n tQ s t.-                     c h i l d r e n , : 1 8 ? m o rith -o ld C h a r ­     t o buy a n e w car. • -
                      M e l a n ie t o l d t h e A d v e r tis e r ;    l o t t e , a n d ' b a b y -B e n , . w h o
                 "I w a s j u s t g e ttin g ready to go                arriv e d o n C h r i s t m a s Eve.                       A nd t h e w h o l e fa m il y ,will
                 o u t w h e n I g o t t h e p h o n e call,                                                                   s o o n b e h e a d in g f o r G ra n C a n a ­
                 w i t h s o m e o n e a s k in g m e a f e w               A l t h o u g h t h e c o u p l e a r e s till     ria, w h e r e C h ris 's b r o t h e r , D a r­
                 d e t a il s a b o u t m y s e lf. I t h o u g h t     " re elin g fro m t h e sh o c k ," th e y             r e n , ha_!» r e c e n tl y o p e n e d a b ar.
                 i t w a s s o m e t h i n g a b o u t - a s i g n - ' a r e k e e p i n g t h e i r f e e t firm ly on        T h e re a re su n s h in e ' h o lidays
               - w r i t i n g j o b I'd appl.ied f o r .W h e n - t h e . g r o u n d i ; T h e y , w i l l . b e             p l a n n e d f o r M e l a n ie 's p a r e n t s
1/              T w a s t o l d w e 'd w o n I n e a r ly fell.. in v e s t i n g . s o t n e / o f t h e c a s h f o r        a n d 'C h ri s 's m um .. •
              ' t h r o u g h t h e fl o o rl M y h u s b a n d ; - ’ C h a r l o t t e a n d B s n . a n d C hris - • I t 's t h e s e c o n d t i m e in t h r e e
               . C h ris , w h o h a d j u s t co m e : in : w ill b e - k ee p in g * .h is jo b ’ in : a . y e a rs • t h a t M e l a n i e '' h a s d o n e
                 f r o m w o r k ; c o u l d n ’t b e lie v e i t ' W i n c o b a n k s t e e l w o r k s , w h e r e          w e ll in c o m p e t i t i o n s ... s h e W as
                                                                        h e w o r k s a s a s l i tt e r ;
: ■' -           ■ e i t h e r / ' ..                                                                                          a f in a lis t in t h e M is s R o t h e r h a m
                • ’ U.ntil.then^ ivielanie h a d fo r -                 :^i\lor h a v e t h e c o u p l e a n y p l a n s . . A d v e r t i s e r c o n t e s t in 1987. B u t
: r : - ;     .- g o t t e n all- a b o u t the.- c o m p e ­           to m ove fro m th e ir terrac ed                       t h e la te s t w in h as to p p e d th e
          -      t i ti o n , w h i c h / s h e fiad e n t e r e d on'  D  e  e p d a  l e R oad'h   om   ie. '.‘T h e w in  ' lot. S a i d M e la n ie :."! s till t h i n k it
               •.the- s p u r - o f - t h e - m o m e n t ■ la s t      h a s m a d e us. m u c h m o r e c o m :              m i g h t . b e a d r e a m a n d t h a t I’m
                 y e a r. V                                             f o r t a b l y o f f , ” s a i d . M e la n ie .      g o jn g to w a k e u p l” .                                          C hris arid M e la n ie w ith childreh-C harlotte, z8 m onths, a n d :B e n ja m in ,fiv e w e e k s .-K zi^ y .:--. ■ ■ _ }


                                                                                                                                                                                                                                                                                                               M ille r s.
                                                                                                                                                                                                                                                                                                                     R !o th e r h a iD ^ ;t5h i t e i i :
                                                                                                                                                                                                                                                                                                                face-!a ^ i !:'5. m i ll i o n bill;
                                                                                                                                                                                                                                                                                                                tQ ^ c b n y e rt;. M illm dpr-:.
   I:         .                                                                                                                                                                                                                                                                                                -in -t-ia ^ an a l l - s e a t e r
                                                                                                                                                                                                                                                                                                                g r o u n d - — a b i l l 'w h i c h "
%
                  epidemic                                                                                                                                                                                                                                                                                     •could l e a d t o , b a n k ^ ;
                                                                                                                                                                                                                                                                                                                 r u p t c y .. ;
                                                                                                                                                                                                                                                                                                                ; ■ Lord. J u stic e T a y lo r Has
              " A .• w h o o p in g " tough!                                                                                                                                                                                                                                                                    •recorrijneridedvthat’ Foot-.
            ■e p i d e m i c - w i l l h i t                                                                                                                                                                                                                                                                   ' ball L 'e a ^ 'e .’clu b s’s b o u iti' •
          '■R o th e r h a m c hiidrervthis;                                                                                                                                                                                                                                                                     gct;.- ricT o f "- te ti. iacing . b_y
             yea r-;'h e alth chiefs have,                                                                                                                                                                                                                                                                     j-999^^reduci’n&'-^^standing ,•
            'p re d icted :.               . r.                                                                                                                                                                                                                                                                  roo’n ib y a te n th each y e a i v '
                  Recent-’ s tu d ies show ,                                                                                                                                                                                                                                                                         I f th e Millers;'are-proW ..
             t h a t t h e n u m b e r o f ch i ld -                                                                                                                                                                                                                                                             m otcd thc-\.change'. w ifi.
                                                              A S T -IR O N e v id e n c e t h a t a c o a c h a n d h o r s e s h a s b e e n d r iv e n t h r o u g h p la n n in g
         : re n catching; w H ooping
              c o u g h pea k s every, f o u r
           -years.
                                                          G    a n d lic e n s in g r e g u la tio n s g o v e rn in g a c o n tr o v e rs ia l R o th e rh a m , tip h a s b e e n
                                                     p a s s e d t o t h e A d v e r t is e r .
                                                                                                                                                                                                                                                                                                                 h a v e 't o b e m a d e .by
                                                                                                                                                                                                                                                                                                                 A u g u s t 1 9 9 4 ,. le a v in g
                                                                                                                                                                                                                                                                                                              lithem ; to?'find th e cash .
               • • 'A n d . . t h a t ’- s' w h y                                                                                                                                                                                                                                                                m u c h quick c r. U n ite jL -
                                                       : Tfre evidence, some in the                                       W K tK F T iS V f-                                                      W im p e y s , b e liev e d to b e .w o rth £ 1 m il­                                                          secretary K o rraa n D arnill ^
              R o th e rh a m - H e a lth
              A u th o rity , h as la u n c h e d form o f confidential-docum ents , ■                                                           €                 !                              lion. W im p ey s:c an n o t, h o w e v er, g o ahe ad                                                         has voiced his anger over 1
                                                                                                                                                                                                  w ith ;A e i r . p l ^ s if.fre s h p la n n in g p e r m is ­                                                 tfie lack o f co n s u lta tio n o f V
                                                     show      s      th  a  t    c  a n c  e r-p   ro  d   u c in  g
                                                                                                                                                                                                                                                                       breached
              a .cam paign t o encourage:                                                                                                                                                         s io n is d enie d.                                                                                            clubs by^^the a u th o rities;— '
              p a r e n ts to get y o u n g asbestos waste has been dumped-                                                                                                                                                                                                                                      s?e' b'ack.jpage ’ fo r ''fu ll
                                                                                                                                                                                                     ! L o c a l re side nts, w h o o p p o se th e W im -
              c h ild re n im m u n is e d           on the D roppingw ell tip in K im -                                  tim e -w ith W im p e y s c u rre n tly s u b m i tt i n g . pey. p la n o r a n y fre s h d o u b t o f tip p in g a t                                                               "story.
                   “ P a re n ts c a n p ro te c t berw orth3 and th a t in th e 1980s no                                 a r e -jig g ed p la n n in g appIicatio n \w h ich , i f               D r o p p in g w e ll h a v e ex p re s s e d h o r r o r at
              t h e i r ' fam ilies fr o m ' t h e few er th a n 16 licence conditions                                    successful, w o u ld enlarge t h e are a o f th e                       th e p la n n in g a n d licen c e b re ac h es • o u t ­
              illness b y hav in g th e ir w ere breached.                                        1                       tip as p a r t a landfill o p e ratio n .                               lin e d in th e d o c u m e n ts .
              c h i l d r e n i m m u n i s e d ,” - • P la n n in g p erm is s io n d a tin g b a c k to                   • . O n ly last w eek it w as re v ea le d in th e                     ' E liz a b e th L e n g , o f th e G r a n g e P ark
              s a id S te v e H a w k in s , d is -  ,i9 5 8 h a s a is o b e e n v io la te d .                • ,       A d v e r tis e r t h a t th e t ip o w n e r, M r C harles             •Action -’G r o u p 3 . w hich- is 'f i g h t i n g th e
            't r i c t h e a lth p ro m o tio n           T h e in fo rm a tio n c o n ie s .a t a sensitive              W a ts o n . (77), ,h a d d o n e .‘a deal_.:-with                      p4 ro p o........
                                                                                                                                                                                                             s a ls...hit-, o u.............
                                                                                                                                                                                                                                t: “ T h e s e ;l a t e s t , re ve-
              officer.                          -                                                                                                                            - . latiSns sh o u ld be. d ie final n a il.in tiie coffin o f any
                                                                                                                                                                                 •plans to u se D r o p p in g w e ll as a tip . W e w a n t to k n o w .
                                                                                                                                                                                  w hy w e h av e b e e n k e p t i n th e d a r k o v e r w h a t’s b e e n ,
                                                                                                                                                                                  h ap p e n in g . G o d kn o w s w h a t t h e h e a lth effect in' this
                                                                                                                                                                                  a r c a h a v e b e e n .”                                     ._ ’.          . -
                                                                                                                                                                                          •An in te rn a l R o th e rh a m C o u n c il d o c u m e n t
                                                                                                                                                                                  d a te d F e b r u a r y 2 7 ,1 9 8 9 , reveals t h a t tip p in g i n th e
                                                                                                                                                                                  1980s in c lu d e d vario u s asb e sto s m a terials, in c lu d in g
                                                                                                                                                                                  th e d e a d l ie s t . o f all, “ th e b l u e . asb e sto s ’ type
                                                                                                                                                                                                                                                                           ' " A        c la ir v o y a n t:-. td ld " .' t h e ;": A d v e r t is e r
                                                                                                                                                                                  cro eid o lite .” .                   ,           ’
                                                                                                                                                                                          A ’T equest f o r its re m o v al w as m a d e to th e tip '                  s n a tc h e d b a b y A l e x a n d r a G r iffith s w o u ld ; be
                                                                                                                                          OF ROTHERHAM                            ow n'er'/'pointing Qut 'th a t -“ th e m ate ria l is a h u m a n                    fo u n d h o u r s b efo re p o lic e s w o o p e d a h d resc u ed
                                                                                                                                                                                  ca rc in o g e n ” (c a iic e r-p ro d u c in g a g e n t). . '.                      th e b a b y .                        ■ '       - -       -      ’- •
                                                                                                                                                                                                                                                                                                                  fryPaul HUIfipHlieS
                                                                                   DOORS, WINDOWS, PATIO                                                                                  T h e d u m p in g o f asb e sto s a n d o t h e r p o te n tially
                                                                                                                                                                                  - h az a rd o u s w astes to o k p la c e ag a in s t a b a c k g ro u n d
                                                                                                                                                                                  o f m assiv e licenc e v io latio n s, in c lu d in g fa ilu re to:
                                                                                                                                                                                                                                                                             In an astonishing tele-
                                                                                                                                                                                                                                                                       phone call to this office
                                                                                                                                                                                                                                                                       'last F r id a y afternaonK {ng ah 'article about her.
                                                                                   DOORS & SUN LOUNGES                                                                                     ■ S u p e rv is e th e s k e p r o p e r ly : •
                                                                                                                                                                                      ■ ■ C o n tro l loose w a ste .'
                                                                                                                                                                                                                                                                        m edium Je a n ette . R yan.-. S h e asked m e to tell the
                                                                                                                                                                                                                                                                       plea d e d to speak w ith ,. 'police w h a t she hadseeii.
  F — v.                                                                        CUSTOM MADE TO                                                                                           • ■ S u p p re s s : d u s t ad e q u a te ly .and d ea l w ith
                                                                                                                                                                                7v e r m in a n d in s e c ts .
                                                                                                                                                                                                                                                                       jo u rn a list-D eb b ie P a r - S h e w as w orried they
                                                                                                                                                                                                                                                                        ke r, claim ing she kn e w w o u ld th in k -sk e .zv a s a
                                                                                SUIT YOUR HOME                                                                                            . ■ C o n tro l access.                                                       th e ' w hereabouts o f the crank i f she telephoned
                                                                            All available in while uPVC                                                                                • ■ R e s id e n ts w e re able to " p in p o in t th e viola­                   m issing baby. ; -                      herself.”
                                                                                                                                                                                  tio n s a fte r lea rn in g of.the licence conditions.                                      T h a t-w a s a t 2 .3 0 p m , - D e b b ie p a s s e d th e
                                                                            or Aluminium for;
                                                                                                                                                                                          E q u a lly im p o rta n t, a confid en tial in te rn a l                      blit i t w as 8pm before message onto police a t
                                                                                 IMPROVED • *. NOTROUBLE
                                                                                                                                                                                  p la n n in g d o c u m e n t fro m -R o th e rh a m C o u n c il, d a t e d :         Debbie ■ w as contacted R otherham ,
                                                                                COMFORT: ' OR ROT                                                                                                                                                                        a n d to ld o f the call fro m .           I t w as th a t night that
                                                                                                                                                                                  M a y 12, 19S9,' sh o w s t h a t p la n n in g re s tr a in ts h av e
N -                                                                                   LOWER HEATING BILLS                                                                          sim p ly b e e n i g n o re d ..-a n d t h a t n o th irig 'ca n b e d one            the clairvoyant.                    -.p o lic e w en t to a house in
                                                                                       REDUCED • IMPROVED                                                                          a b o u tir: - -                                          -•                          : W h e n .she . co n ta c t the village o f B u rfo rd in
                                                                                       NOISE •             SECURITY All manufactured locmlv in Smith Vo                                    “ H is to ric a l o v e rtip p in g o n t h e ‘ex istin g site is             M r s R y a n , the m edium O xfordshire. T k e r e ik e y
Vi                                                                                          HOME IMPROVEMENT                 YOUR SATISFACTION IS
                                                                                                                                                                                   effectively im in u n e fr o m e n fo rc e m e n t a c tio n d u e to                 told her- th a t 'w ith in fo u n d ihe baby,
                                                                                                                                                                                                                                                                         hours .the.-police w ould                  D e b b ie s a id :" W h e n I
                                                                                                                                                                                  t h e passa g e o f tim e ,” t h e d o c u m e n t says.
                                                                                              LOANS AVAILABLE                      OUR REPUTATION                                         ■A n o th er .d o cu m e n t ad d s: “ T h e situ a tio n h as                f i n d th e ' b a b y . S h e .'saw- new spaper p h o to ­
                                                                                              Wrltierrdeialls              SilYoikshlrswindows' worKcarriesa guoronfea             b e e n m a d e w orse b y t h e .f e e t t h a t c e rta in c o n d itio n s         described in v iv id d etail graphs o f ihe house a t
                                                                                                 available on request.,    tor'yaur wflslaclion piu; pra Dj of Ihe company's
                                                                                                                             rellabllllvandrBpiilolion. Solor rapiawmsnl           h a v e n o t b e e n c o m p lie d w ith , i n t h a t t h e tip p in g has          a house in the country, the w eekend. 1 couldn't.
                                                                                                  'm are. licensed credit     dacrscna windows, don'iterorlenhvlih
                                                                                                   brokers                      Hcond best, (ItYDRKSHIREWINDOWS                 . ex c ee ded t h e p e r m itte d H eight a n d re q u ire m e n ts fo r                Sh e said the w om an who believe m y .eyes. E v e r y ­
                                                                                                                                                                                   th e p h a s in g o fr e s to c a tio h h a v e y e t t o b e m e t .”               sn a tch e d the baby fr o m thing fi tt e d M r s R y a n 's
                                                                                                                                                                                  -        A d d e d E liz a b e th L e n g ; “ T h e s e a re asto n is h in g          Tier, cot in a. London description dow n to ihe.
                                                                                                                                              'ctkshirc''»mili>o                 a d m i s s i o n s fro m w ith in th e c o u n c il. H o w can                         h o sp ita l h a d . been -a last d etail. T h e w om an
                                                                                                                                                                                   a n y o n e even.' c o n te m p la te c o n tm u in g :w ith t h e tip or             nurse.                                 arrested is riow know n to
                                                                                                                                                                                   ex te n d in g its o p e ra tio n s w h e n these- ab u se s have                          Debbie s a id : “I knew h a ve been 'a. nurse, h 's .
                                                                                                                                                                                 ’ b e e n ta k in g p la c e 'a n d n o t a single e n fo rc e m e n t o rd e r         M r s R y a n through w r it- , u ncanny.”
                                                                                                                                                                                  is s u e d b y t h e co u n c il.”                       (C o n t o n P a g e 3).

                                                                                                             FACTORY SHOWROOM
                                                                                                          Bramley Way, Hellaty Ind. Estate                                                                                      .  ...... „_s and Commerce 2, ■ Reader Holiday offer 2, ■ Capstick 4, ■ Opinion 5.
                                                                                                            S (0709) 540982.                                                                                                    i Classifieds ads   18, ■ Births, Marriages and Death? 22, 23, ■ Church Notices 23,
                                                                                                          Evenings (0709) 532490                                                                                                I Public Notices 24> i Weekend 25, ■ Letters 26, ■ Crossword 26, ■ Clipper Club 27,
                                                                                                               OPEN 7 DAYS A WEEK                                                                                               I Stars 28, ■ Women's29. ■ WeekendTV Guide 3D and 51. ■ Property Centre 31-49.
                                                                                                                                                                                                                                      ■ Gl!ibscena52-55, ■ District News56-5S, ■ Motors GO-74, U Sport74-8Q.
  2     ,        T H E A D V E R T IS E R . F R ID A Y , FEB 2.19 90-




                                                                                                                                                                                                                                                                            c e le b r a te d
                                                                                          ■ .F o rm e r R o th e rh a m .re sid e n t                    A fte r-f o u r y e a r s s e r v ic e a s a p ilo t                                                                                 w h e r e o n M o n d a y , h e h o s te d ; a.
                                                                                                                                                                                                                                      fie ld ,:f o l i o w e d b e f o r e h e j o i n e d t h e
                                                                                                                                                  . in t h e R oyal A ir F o rc e d u r i n g W o r ld                                                                                       'p a r t y to ' c e l e b r a t e 50 y e a rs in b a n k ­
                                                                                                                                                                                                                                      b arik’s .i n s t a l m e n t c r e d i t s u b s id ia ry .
                                                                                       E r i c W a t s o n w h o u s e d t o l i v e in                                                                                                                                                       in g . A m o n g o t h e r s i t w a s a t t e n d e d
                                                                                                                                                    W a r T w o, he re tu rn e d t o th e
                                                                                       S p in n e y f ie ld ; c e le b r a te d : h is              R o t h e r h a m o f f ic e o f t h e b a n k (noyy                                 ..L e av in g t h a t in 1975 h e j o in e d - by.f r ie n d s w h o h a d s e r v e d w i t h him
                                                                                       5 0 t h a n n i v e r s a r y in b a n k i n g o n           R oyal B a n k o f S c o t l a n d ) .                                           C opleys B ank a s g en e ra l m a n a g e r             in R o t h e r h a m .
                                                                                       M onday. :                                                                                                                                    a n d w h e n it - w a s t a k e n 'o v e r by t h e     . D u rin g his p e r i o d in R o t h e r h a m -

   Europe is^irn
                                                                                                                                                         In 1957 h e w a s s e n t to! N e w York
                                                                                             It -Was o n .the s a m e d a t e in 1940.                                                                                              /.m e r c h a n t b a n k R ea B r o t h e r s h e : h e .w a s a c t i v e in R o u n d T a b le a n d in
                                                                                                                                                  . fo r th r e e m o n th s an d sh o rtly a f te r                                 m o v ed o v er to t h e p a re n t co m p an y
                                                                                       t h a t h e s t a r t e d a t W illia m s D e a ­            h is r e t u r n o p e n e d t h e n e w .B a s ild o n ;                                                                                 th e fo r m a tio n 'o f Ju n io r C ham ber
                                                                                       c o n ’s Bank, a t P a r k g a t e , a s n u m b e r ■                                                                                        w h ile .c ontinuing t o have re sp o n -                w h e r e h e w a s i t s s e c o n d pre s id e n t.: "•
                                                                                                                                                    E ssex, b r a n c h o f W illiam s D e a c o n 's '                              s i b i li t y f o r C o p l e y s . ■.< •                    His w ife , M o'na ( n e e Youle), a n d ;

   of new fi rm
                                                                                       t h r e e iii a t h r e e - r h a n o f f ic e , w i t h     a s .t h e y o u n g e s t m a n a g e r in t h e .
                                                                                       sloping d esk s an d n o t even a ty p e ­                 ' ban k . M a n a g e r s h i p s o f C h e a p s id e ,                               " His s o l e re s p o n s ib i l i t y is novi/ as  o t h e r m e m b e r s o f his fa m il y w e r e
                                                                                       w r ite r;                                                   London, a r i d . C h u r c h . S t r e e t , S h e f ­                          m aniaging d i r e c t o r - o f C o p le y s            a lso p r e s e n t a t t h e p a r ty .           -
            -A n i n t e r n a t i o n a l c o a c h d r i v e r a n d c o u r i e r
   firm , i s t o s e t u p i t s f i r s t S o u t h Y o r k s h i r e office
   in S w in to n .
       I n te rn a tio n a l D r iv e rs w h ich will e n a b le u s to
  a n d C oach C o u rie r S er­ o p e n in M a r c h in tim e
  vices sh o u ld b e in o p e ra ­ fo r th e s e a s o n / ’ said
  t i o n a t- F i t z w i l l i a m           C h ris tin e P a rk e r, w ho
  S tree t,, fro m M a r c h ~" w ill r u n th e S w in to n
. w ith 25 • vacancies o n office w i t h p a r t n e r G o r -
  offer. :                                     don-G lo v e r; • —           ■'
       T h e firm ,, w h ic h has                  “ W h a t w e w a n t from
  base s th ro u g h o u t- th is c o u rie rs is enth u siasm ,
  c o u n t r y a n d als o i n a n d p o s s ib ly th e w orking
  E u ro p e , w ill b e lo o k in g ^ k n o w le d g e o f another-
  for i?SV licen se d d riv e rs lan g u a g e - b u t w e w ill
  w ith c o n tin e n ta l e x p e ri- g iv e fu ll tra in in g i f th e y             E       n g in e e rin g                         co m p an ies
  ence a n d couriers —w ith a r e n ew to th e jo b .”                                       in th e a r e a h a v e b e e n w a r­
  o r w ith o u t e x p e rien c e                U n t i l th e office open s
  to ta k e h o lid ay m ak e rs to C h ris tin e is re s p o n d in g                 n e d to p r o v id e f u ll w r itte n
  re s o rts in F ra n c e ,- Ita ly , to e n q u irie s fro m h o m e.                t e r m s o f e m p l o y m e n t t o iall
   S p ain , Y u g o slav ia a n d A n y o n e w h o w ish es to
  D e n m a rk .                           .' c o n ta c t h e r sh o u ld tele-       w o r k e r s ... o r r i s k a n u n p l e a s a n t
      “ W e..are. ju s t w a itin g p h o n e R o t h e r h a m                        b a c k la s h fr o m in d u s tr ia l tr ib u ­
  fo r g ra n ts fro m th e D T I 586927.
                                                                                       n a ls .
                                                                                              N iehblas K e m p s director o f th e E ngi­
                                                                                       neering E m ploy ers’ Sheffield A ssociation,
     R o t h e r h a m m 'a n .B ria n Isles (b e l o w ) h a s b e e n
-a p p o i n te d .s a j e s - a n d m a r k e t i n g d i r e c t o r , f o r t h e   said; “ I t is becom ing increasingly app ar­
 m a n u f a c t u r i n g c o r n p a n y T e g r e l E n ginee ring.- •              e n t th a t a n u m b e r .of em ployers have still
      M r t i e s ,(49) w a s b o r n i n R o t h e r h a m a ind                      n o t satisfied th e ir obligations to provide
" a tte n d e d R o th erh a m : G ram m ar S ch o o l. He                             s u c h w ritte n p a rtic u la rs.”  .    '
                                             t o o k h is HNC in c o m ­
                                             m erce a t -R o th erh am                      .‘ -.He a d d e d t h a t in fa ilin g to t a e e t ' th e s e legal
                                             C o lle g e o f T e c h n o l o g y       re q u ire m e n ts , em p lo y e rs c o u ld b e at a d isad v a n ta g e
                                             a n d later, a d ip l o m a in'           a t a tr i b u n a l a n d t h a t m s o m e a rea s e m p lo y ers s h o u ld
                                            -m a r k e t i n g a n d s a l e s ­       c o n s i d e r g o in g b e y o r ld t h e le g a l m i n im u m
                                             m a n s h i p a t 'S h e f f i e l d      dem anded.
                                             C o lle g e o f T e c h n o lo g y .               T h e l a w c u r re n tly sta te s t h a t a p e rs o n m u s t                                                                                                                             ■ R o t h e r h a m 's h e a t i n g e l e m e n t m a n u f a c ­
                                                 B e f o r e j o i n in g T e g rel    re ce ive d e ta ils o f jo b title , w ages, h o u rs o f w ork,                                                                                                                             t u r e r . B a c k e r E le c tric C o L td 's a n n u a l p r e s e n t a ­
                                             h e w a s m a n a g in g d i r e c ­                                                                                                                                                                                                    t i o n f o r 1 9 8 9 i n c l u d e d n in e 21- y e a r s e r v i c e a w a r d s
                                             t o r o f t h e C l e v e la n d d is-    h o lid a y s , sick p a y , n o tic e e n title m e n ts , grie v an ce                                                                                                                      a n d o n e f o r 4 0 y e a r 's s e r v i c e .
                                             trib u tio n com pany.                    a n d p e n s io n , arran g e m en ts, w ith in 13 w e ek s o f                                                                                                                                      ■ T h e p h o t o g r a p h s h o w s t h e s e r v ic e a w a r d -
                                           , M in era l. H a ul Ltd. M r               jo in in g th e firm . .                                                                                                                                                                      w i n n e r s - w i t h t h e e x e c u t fv e d i r e c t o r s o f . t h e
                                             lie s w ill b e .'s p e a r ­                      A ir K e m p .said t h a t c o m p a n y officials s h o u ld '                                                                                                                      c o m p a n y , l e f t t o r i g h t : 'S . S c o t t , B. S m i t h , Les
                                             h e a d in g t h e T re g re l            also h a v e a fo r m a l co n firm a tio n o f t h e d a te 'o fis s u e o f                                                                                                                 Leng, D. M u f f e t t . G. B ra m h a m , G e o r g e F ree m ans
                                             g r o u p 's ^ E u r o p e a n            t h e te rm s w ic h .th e -n ew e m p lo y ee a n d p re fe r a b ly a                                                                                                                       J o y c e D a n f o r d (4 0 y e a r s ) , K. L ice nse, Philip C liffe;
                                             e x p o rtd riv e.                        n o te o f re ce ip t.                                                                                                                                                                        S . J o n e s , E. B r a n n i c k .B , H i r s t a n d D. F r o g g a t t ; .




                                                                                                                                                                                                                                                                      HpTEVV




                                                                                                                                                                                                                                                                                                                         £229

                                                                      P la c e s a r e s u r e t o b e re s e rv e d quickly,                                           r-                                ADVERTISER READER HOLIDAYS 1 9 9 0
                                                                                                                                                                        i             Past direct to: Reader Holidays, Tbs Advertiser, Eastwood Works, Htzwiniam Road, RotiiBrtam S8 5 1 JU.
                                                                      s p t o b e s u r e of your p la ce in the sun on                                                 i
                                                                      o n e of th e s e p opula r r e a d e r holidays                                                  i                                                                                                                            (am interested in the holiday to :
                                                                      c o m p lete th e co u p o n an d obtain a                                                        i '.     .                                                                                                                   ITALIAN
                                                                      colour b ro c h u re from o u r .town c e n tre ’ ■                                               j       A d d r e s s .. ; . . . ; . ; : . ^ . . . . , . . . . . . . . . . ; . . . . . . ........      ...........
                                                                                                                                                                                                                                                                                                     RIV IERA                         ' ; please tick
                                                                      o f f ic e s - a t 75W ellg ate - or post the                                                                                                                                                                                  Y U G O SL A V IA T |
                                                                                                                                                                        I       . . . . . . .........................:-•••............. ............................................
                                                                      c oupon direct to the a d d r e s s show n.
                                                                                                                                                                                                                                                                                                     Please enclose a large addressed envelope.
               Y ou c a n o n ly b o o k th e s e h o lid a y s th ro u g h th e A d v e rtis e r.                                                                    i                                                      .............
                                                                                                                                                                    -i         Ia d t a I Please note that these holidays are being organised by CONSORTTBAVEL OF ROTHERHAM,                                                                        x/
                                                                                                                                                                                                                                                                         T H E A D V E R T IS E R . F R ID A Y . FEB 2 .1 9 9 0                         3




                     P la it S o r la n d                                                                                                                M             o           u       s e                 f o            u        n         d          i n             m              e          a       t      p       i e
         D e re lic t la n d o n A ld w a rk e L a n e                 I f th e ir p ro p o s a ls are. a p p rp v ed                        A fa m ily h a d a .n a r ro w                      d i n n e r w ith h is fa m ily w h e n a             to t h e co u n c il, a n d ’w h e n they d o e s n ’t b e a r-th in k in g a b o u t .”
   c ould be' t r a n s f o rm e d i n to a s ite fo r            b y r h e fu li'c o u n c il, th e l a n d c o u ld b e                                                                        frie n d c u t. in to th e , p ie a n d               r a n g b a c k to. say w h a t it w a s 'I     •       ’ T h e s h o ck e d 'fa m ily have
                                                                                                                                       s q u e a k .a f t e r f i n d i n g a d e a d
   s h ops, w a re h o u s in g , lig h t in d u s try            u p -fo r sale to 'd e v e lo p e rs b e f o re th e                                                                           m a d e th e g ru e s o m e discovery.                c o u ld n ’t b eliev e it. I w as sick .” - ..n o w v o w e d n e v e r ' ' to ' e a t
   o r eVfen a m arin a :                          “                                                                                         u s e .in t h e i r b e e f a n d
                                                                  e n d o f t h e y ea r. ,                                                                                                                                                                  >                                       '.an o th e r p ie. H e n ry ,T e lf e r L t d ,
                                                                                                                                                                                                                                                                      “ T h e c o u n c il said it was
         C o u n c il officers h a v e d ra w n u p                                                                                    o n i o n p i e . - : . • . :l. X ';.
                                                                        “ T h e b r i e f is really a g u id e lin e as                                                                                “ A t th e tim e w e d i d n ’t                  e ith e r a larg e m o u s e o r a b a b y ' w h o .m a n u fa c tu re d - t h e p ie,
   a n a m b itio u s p la n n in g b r i e f f o r th e                                                                                                                                         re alise it'w as a m o u s e ,” 's aid M r             r a t, a n d offered to s h o w m e a w e r e fin e d £ 5 0 0 b y a n d
                                                                   to w h a t t h e c o u n c il w o u ld like to see                       M ic h a e l S m ith (34), o f
   c o u n c iirb w n e d I i - a c r e site, w h ic h is                                                                                                                                        S m ith , “ w e t h o u g h t .i t w as .a             p h o t o g r a p h o f i t . B u r I . o rd e re d , to p a y £ 5 0 ' c o sts, by
                                                                   h a p p e n to th e s ite in th e f u t u r e ,” said               B e c k w i th R o a d , L a u g h t o n
   ju s t ofF th e M u s h r o o m g a ra g e ro u n -                                                                                 C o m m o n , w as sittin g , d o w n to                  p ie c e o f s trin g . W e to o k t h e pie           c o u l d n ’t face.- see in g it - it R o th e r h a m M ag is tra te s .. ____
                                                                   a p la n n in g d e p a r tm e n t s p o k esm an .
   d a b o u t..~               - ....



   Tipping
   licence
   breach
                                                Court cuts death                                                                                                                                                                                                                                                         Dog


                                                driver's sentence
        ( C o n t f r o m P a g e 1).
        M rs L e n g also reflects
   th e c o n c ern s o f r e s id e n t s .
   in th e area t h a t “ a d ea l” -
                                                                                                                                                                                                                                                                                                                         itself;
   said to b e w o r th '£1
   m illio n - h as been d o n e •
   b e tw e e n , -tip ^ o w n e r,
                                                                                                                                                                                                 A Y N E M i i s c r o f t ’s d e t e n t i o n s e n t e n c e w a s
                                                                                                                                                                                                                                                                                                                         on spike
                                                                                                                                                                                        W
   C h a r le s ^ W a tso n ,, a n d
   W im p e y s /
        “ H ow ' icom e, in M r
                                                                                                                                                                                                 c u t f r o m th r e e y e a r s to tw o b y th e C r im in a l                                                              A -freak a c c id e n t le ft .
   W a ts o n ’s o w n w o rd s, ‘a;                                                                                                                                                    A p p e a l C o u r t in L o n d o n la s t T h u rs d a y - p r e ­                                                             a r o ttw e ile r d o ^ h o w ­
   d ea l h as b e e n d o n e ’.o ver                                                                                                                                                                                                                                                                                   lin g in . a g o n y o n
   th e ,tip;:,when 'W im p e y s .
                                                                                                                                                                                        c is e ly o n e y e a r a f t e r t h e a c c id e n t.                                                                          T u esd ay              a f te r it
   h av e n o ^ e y e n g o t p l a n n - :                                                                                                                                             X luscroft (20), of                                                                                                              im p a le d its e lf o n an
    in g .. p e r m is s i o n ? ” , she                                                                                                                                           F a r ; C rescent, E ast                                            by TRUPY SCANLON                                                  ir o n sp ik e .
    asks. “ F o r s o m e re aso n                                                                                                                                                 D e n e , w as s e n ­                                                                                                                    T h e d o g h e e d e d eig h t
   W im ^ ey 'sfm u st fe el v ery                                                                                                                                                                                                                                        m o o n ” , a t th e dec isio n
                                                                                                                                                                                                                                                                                                                         stitc h e s in a leg w o u n d
    c o n fid e n C th a t th e y w ill
                                                                                                                                                                                   ten ced , and b anned                                                                  a n d w a it to h e a r h is new
                                                                                                                                                                                                                                                                                                                         a f te r i t failed to c le ar a
    g e t p l a n n i n g p e r m is ­                                                                                                                                             from driving for five                                                                  re lease .d ate, th e fam ilies
                                                                                                                                                                                                                                                                                                                         fo u r feet h ig h ra ilin g ,
                                                                                                                                                                                   years by Sheffield                                                                     o f th e t h r e e d e a d girls
    sion:” - ^ ' . •                                                                                            The three girls died when WSuscroft's ■                                                                                                                   h a v e h it o u t'a tth e ' a p p e a l       w h ile ch a s in g a.cat,.
         M i s ' -X en g . f e l t- s u r e ,          T h e d e v a s t u to d Eabi D ono m u ...............................................................................
                                                 w h o s e re c k l e s s - d r i v in g c a u s e d t h e ciQ^'kij-a'+f-ni'a^'hAnVtomntfiHtn'rivertake
                                                                                                              e r h i t a t r e e a s h e a t t e m p t e d t o o v e r ta k e      C row n C o u rt last                                                                 re s u lt.                                         T h e a c c id e n t h a p ­
    how ev.efj-th’at ' i t w o u ld
    b e th e :'re s id e n ts '1in .the
                                                  d e a t h o f t h r e e t e e n a g e g l j ls . h a s a c a r d u n n g a c h a s a .                                           Ju n e after pleading                                                                       M rs Jo an B oden,                        p e n e d w h ile , t h e dog,-
                                                 m f r k e d t h e a n n iv e F s a ry o f t h i                 M uscroft. w ho «                   over -tha d rink,                                                                                                                                                   ca lle d Z a k , . w as ; b e in g
    D r o p p in g w e ll . a re a ,                            w i t h h ," o w " moyv in g .r i b - dri™ lrr,t at tho                                                             guilty to causing the                                                                 m o th e r . o f . S h a ro n ,
                                                                                                                                                                                                                                                                          d e s c rib e d th e d ec isio n as            ta k e n fo r a \w a lk .by h is -
'■ m a n y ' 'pf>vyhom live in                     U t^;                _                                       T h e ve rs e a p p e are o In - la s t w e e k s
                                                                                                                                                                                    deaths, by reckless                                                                                                                  o w n e r, S o p h ie M u rp h y .
                                                       F ro m th e S v e r t h o r p e J D c t c n t io n A d o f ,,                                               ,,          m em b ra n c u :                                                                           disg u s tin g .
• houses:';rw ith leaseholds
                                                  1C e n tre ? p n tH u m b e r sid a :in ^ e A W M ^ th a l||^ ^ ^ }?&^ hu d ;r.r .                                                driving,     of Sharon                                                                ' A n d M rs Y vonne                                A s .th e y w a lk e d by. t h e . .
  . h e ld b y M ir W a ts o n , w ho                                                                                                                                               B oden ( i 8)5 Shelly                                                                                                                s id e o f H e r r i n g t h o r p e -
                                                  th e A p p eal C o u rt c u t h is s e n to n c o fo r -       T h ia w e e k M u s c r o ft's p a re n ts to ld th e                                                                                                  •B oyle, m o t h e r o f S helly
    •would p re v a il a n d t h a t                       ^ d e a th !b y .jo c _k ie s^ b•.-<--M
                                                ’ ca u sin g                                 rivini7g^;fv SfK®«^rart/flerthut their son would Currv the                                                                                                                                                                  J u n io r a n d - In fa n t'
   .p la n n in g ; p e r m is s io n             three years t o t w o - Wayne Muscroft {lurcjBn of ,U5 gu[jt and rerrorsrt for the                                                Boyle (18) an d Sha-                                                                   said: “ W e th in k i t is
                                                                                                                                                                                                                                                                           ou tra g e o u s .                             S ch o o l, Z a k s p o tte d th e
     w o u ld 'h o tb e g r a n te d . -..         pennedjhisrown: re mem brance verse .to „ stQ<his life                                                                         . ra n H u g h e s ( 17).^                                                                                                             c a t a n d c h a s e d a f te r it,
             “ R e - a c t i v a t i n g ;o r
                                                 S h aro n B od en . S h e lly B o y te s n d S h a ro n           ..jt w a s t e r r ;b|e a c c id e n t, an d th re e                     -M u s c ro ft w a s i n c o u rt                                                  “ A n ac cid en t is fair
                                                 H u g he s, th e t h r e e frie n d s w h o d ie d a f t e r   g ,r ls d i a d ^ ^ i a M t B r i a n i M u s c r p ^ o m ; :                                                                                              e n o u g h - b u t w h e n yo u              b u t e n d e d ;'-u p ': w ith, a :
     e x te n d in g ,. th is. • tip . is        a c c e p tin g a h f t h o m e m h is car                     h is F a rC ru s c a n L lm n ie .                                      la s t T h u r s d a y .to h e a r
                                                                                                                                                                                                                                                                           a re ch a s in g o th e rs i t is              spike th ro u g h ' o n e o f his
     im possible to d e f e n d ,”              '*•’-'W e d i d n o t e v e n s a y g o o d b y e / • ! ? "But-slshave also watchedsmy son die                                          M r J u s tic e Ju p p
                                                                                                                                                                                                                                                                           s o m e th in g different.                     legs .w h e n h e failed to
     she add:e d . ' “ T h e r u b -               A llth b sem o n th sa g o ,            '          during t h e last 12 m o n t h s - t h u a c o i d s n t                          a n n o u n c e : .“ W ith som e                 ■ W a y n e _ M u s c ro ft
                                                                                                                                                                                                                                                                               “ I f h e w as g o in g to                 ju m p o v e r th e ra ilings. ’/
  1 b is h , thfe sm ell, t h e V e i-             A nd e v e ry d a y it m ak e s m e c ry ,         d6“.?,3’" " ^        „ „ tiou= o f f e n c e - h e t                              h e s ita tio n , as a n ac t o f
                                                                                                                                                                                                                                                                           s tart, ch a s in g , h e sh o u ld                A . v e t was' ca lle d a n d '
     •min, th e lo rrie s w o u ld                 B ecause I m fu llo fw o e .                       itw a sn o tirteid ed .                                                          -.m ercy, w e s u b s titu te tw o
                                                                                                                                                                                                                                                                                                                          h e h e lp e d lift Z a k .o ff t h e . •
     d e s tro y °-th e q u a lity ..of               '" T h e f e e l i n g s t h a t l h a v e                   " W a y n e d es p era te ly w a it e d , t o g o t o                y e a rs .” 1                                y e a r a n d v ow e d n e v e r to h a v e let th e g irls o u t o f                s p ik e 'b e fo re .taking h im
                                                                                                                th e fu n e ra l, b u t w a s ad vis .bo ?a g a in s t i t . , ;       . M r J u p p w as to ld t h a t              d riv e again. .                      t h e c a r. W h e n y o u h av e
      life.      ,.1,.                            -I n s id e          ...........   .....                      •'~ " S o he -has w ritten thistverse to ^ ry to .                                                                                                                                                        bac k to h is su rg e ry o n..
          • “ N d - w o n d e r W im ­               E m b la z o n e d o n m y h e a rt, ;                                                                                              M u s .c r o ft h a d b e e n                                                     g o t c h ild re n w ho get
                                                                                                                 show w h a t he feels.                                                                                                •T h is        w eek,               k ille d , a life sen te n c e is              M o o rg a te w h e re ^he .was
      pey s'h a v e re fu ie d 'to p ro-,            C a n n e v e r s h i e l d t h e p a i n l h id e i           MHe s e n t it to us and w o p u t i t In the                      . severely affec ted b y th e.
                                                                                                                                                                                                                                     M u s c r o ft-s fa m ily a d m it n o t e n o u g h fo r th o s e                   k e p to v e r n ig h t.
      vide the-.local a u th o r ity              • S i r ic e f a t e . t o r e u s a p a r t / '               papery                                                                  a c c i d e n t ,. w h ich , h a p ­
                                                                                                                                                                                                                                     •to ' b e i n g “ o v e r t h e re s p o n s ib le .”                                    Z a k w a s t a k e n to
      w ith an’, e n v iro n m e n ta l                                                                                                                                                  p e n e d o n J a n u a ry 25 last                                                                                               a n o t h e r v e t t h e f o llo w in g
      im p act s ta te m e n t.” '                                                                                                                                                                                                                                                                                        day -w h en th e w o u n d was
                                                                                                                                                                                                                                                                                                                          tre a te d b u t n o p e r ­
                                                                                                                                                                                                                                                                                                                          m a n e n t d a m a g e is

                                                                                                                                                                                   T h r e e li     a n g e ls                                                                                                            th o u g h t t o - h av e -been
                                                                                                                                                                                                                                                                                                                          done.


                                                                                                                                                                                   td C h a r lie s r e s c u e
[...]
                                                                                    th e Millers' s ecreta ry, le a v-'                                                                                                                                             Y a te s fin is h e d third. - : b o ro u g h . fighters'^M a'rk ‘o
                                                                                    ing R oth e r h a m w ith four                                                                                                                                                  lea ving E lliott,'watching;, ,-EptS.riv!a-nd-'-'-Tb‘m rn y -''’''
                                                                                    s ta r k c h o ic e s .                                                                                                                                                         t h e ra ce from t h e stan d s) J o y c e . / '; .
                                                                                     ■ " W e .co uld try t o g e n e r ­
                                                                                    a te t h e m o n e y t h r o u g h th e
                                                                                    tu rn stile s, b u t th a t w o u ld
                                                                                    b e impossible,*' he said..
                                                                                        " W e co u ld sell players,
                                                                                    b u t n either th e c lu b n o r th e
                                                                                                                                    United face ‘crunch’
                                                                                                                                             R o t h e r h a m U h f te d h a v e h a d a d o u b l e b o o s t as t h e y p r e p a r e f o r
                                                                                                                                                                                                                                                                    w o n d e rin g - w h a t- m ig h t . . . / • ; D b n 't m is s 'n e x t ,.
                                                                                                                                                                                                                                                                    h a v e .b ee n h a d - h e n o t           F r i d a y 's -A d v e r t is e r s
                                                                                                                                                                                                                                                                    b e e n \ o m itte d b y t h e w h e n we.-ll -"have: •t'h.e?-v.
                                                                                                                                                                                                                                                                   selectors.' •'                               re p o rt of - an d 're a c tio n i . 1!
                                                                                                                                                                                                                                                                         T h e R otherha m " ace. t o - Elliott's big day:.;. \ :
                                                                                    supp o rtersw o u ld b e happy               o n e o f t h e s e a s o n 's c r u n c h g a m e s a t W li l l m o o r t p m o r r o w .                              -         will b e g iv en a b o o s t by
                                                                                    a b o u t it, a n d ' t h e transf ers          R o th e r h a m face. hig h* s i x * p o in te r w e c a n w f n ," . h e '. in c lu d e s o u g h t- a f te r cen*            C o e rs p o o r perforrhan'ce
                                                                                    m a rke t c o uld spiral d o w n * flyin g. N o t t s C o u n t y in a d d e d .' ... .                                       * traj d e f e n d e r D e an Y ate s in         - b u t.k n o w s the m en
                                                                                    w a r d s, a n y w a y .as c lu b s ' w h a t - m a n a g e r                “ illy     . -"O bviously I w a s d i s a p - . their, side. Yates, h a s b e e n                  he'll h av e t o w a t c h o u t
                                                                                    priorities ch an ge.-'',                    McEvvan s e e s a s a t o u g h ' p a n t e d w e lo s t a t B o lton c h a s e d b y s ev e ral t o p sides-
                                                                                                                                                                                                                                                                   for are K e nyans William -
                                                                                      _" Failin g th o s e ; w e c ou ld • s ix - p o in te r . l i s a g a m e th e b e c a u s e . w e , co u ld .' h a v e — 'w ith . a price t a g o f
                                                                                                                                Millers have g o t t o w i n t o ' w o n i t w a s j u s t a s lig h t a r o u n d - £1. million b e in g                          T a .n u i .‘ a n d W i l f r e d
             now.                                                FEES               a s k 't h e d ire c to rs t o f o o t th e
                                                                                    b ill> o r g o b u st."                     k e e p in—t o u c h w ith t h e .'|a p s e 0 f c o n c e n tr a ti o n ,th a t p u t on h is head.                                 Kirochi, M any. ■ p u n d i t s .
                                                                                                                                le a din g sid e s. .                                                                   :" -S k ip p e r P h ilT u r n e r,w h o . have. T a nui installed as
                                                           „     FREE
                                                       r se lf- • •
                                                                                         M any          sm aller        clu bs     A n d .influenti al midfie l­
                                                                                                                                                                           w a s t h e - p r o b le m ," a d d e d
                                                                                                                                                                                                                      j o i n e d . C o u n t y I n - ..th e . f a vourite for t h e gold.-
                                                                                    w o u ld be. w o r s e off . th a n • d e r T o n y ; G r e a lis h a n d ■M cE w a n ;- -
                                                        em ployed LIFE              U nited , b e c a u s e Millmtior d e f e n d e r .Billy.Russel.l are.                     N e w sig n in g . Ally Pick-- ‘ £25.0)0 00 d e a j w h i c h to ok ;                    -And .t h e r e 's ' als o 'the:.'
                                                                                    w a s a tid y.g ro u n d , h e said.                                                   erln g Is"’ u nlik e ly ' :to-. b e G ary Mills ,tcr .Le ic e ster,• p ossbility t h a t C o e will a '
                                                               COVER!                                                           b o th in c o n t e n t io n .for te a m
                                                                                    T h e c a p a c ity w o u ld b e c u t pla ces..             .       .
                                                                                                                                                                           I n c lu d e d In t o m o r r o w 's pla ys, a s d o e s £10'0j0Q0. f i n d : m o r e - f i g h t as h e
                                                                                    fro m its p re s e n t 1 5 ,7 3 6 t o                                                 • sq uad; T h e 2 2 - y e a r - o l d s ig n i n g Craig S h o r t '; w h o f|
                                                                                                                                    Gre alish ".Is back, after                                                                                                      bid s .to .en d his glittering'.,
                                                                                    le ss t h a n .10,0 00, e n d in g se r v in g a tw .o-.m atch ban, w a s s ig n e d o n T u e s d a y for-- jo in e d - 't h e ' M e a d b w Lane: career. w ith a medal...

      0800 585322
         9 am -9pm 7 d a y s a w e ek . Im m edia te d e c i s io n .
                                                                                    b i g c u p - t i e paydays.'               W h 11 e : ' R u s s e l l         has
                                                                                                                                                                          •£16,000'! fro m H FS L oans', o utf it from-. S c a r b o r o u g h .
                                                                                        " P r e s u m a b l y 'w e 'd h a v e re c o v e r e d --from :a -knock L e a gu es'l de B u x to n .

                                                                                    co m p etitive — a n d w e 'd , d a y ^ '.1.-0 L ey la nd DAF
                                                                                                                                                                                                                       Their-sirike fo rce Is. likely to .            - If ‘Elliott vvins it will
                                                                                    to p u t o u r p ric es u p to b e s u ffe re d d u r in g W e d n e s ­ ^ - M e a - n w h i T l e / ' N o t t s ’ b e G a ry L und, Paul Barne s. m a k e it a s u p e r b S o u th
                                                                                                                                                                           C o u n ty m a n a g e d ,- b y ex-' a n d ^ l 9-y.ear-o.ld ..starlet' Yorkshire c f o u b j e - .f o il - .
                                            RE-MORTGAGE sc h e m e                  p ro b a b ly p r ic e ; ourselv es d e f e a t a t B o lton , ftusse ll                M ille r - - N e il ' . W a r n o c k ; . ’i lo m m y J o h n s o n ;- - ••          ■ o w i n g '. J o h n ' I.rw in's                      •PETER ELLIOTT •
                                            14 DAY COMPLETION                       o u t o f th e market.".                    w e n t o f f late in t h e s e c o n d ,
                                            - A N D NO FEES!
                                                                                          Common se n se                        h alf after a n u g ly c h a lle n g e
                                                                                                                                   .from W a n d e r e r s m id fie ld er
                                                                                         ' T h e Football T ru st has
       GL                                                                                sa id it will fin d half o f-th e
                                                                                                                                    Paul C o m stive .
                                                                                                                                       “ H e s uf f e re d o'ne.or t w o
                                                                                          m o n e y n e e d e d f or c lu b s to b ru ise s from It . b u t h e
         FINANCIALSERVICES                         ^ ------------'                       g o a l l - s e a t e r , . b u t .-that- "should ..be a lr ig ht." said
                P h o n e 0 7 0 2 4 70 59 9. Written Quotes.
       .Licensed Credit Brokers. L o an s s e c u re d on property
                                                                                         w o u ld still l eave th e Millers M c E w a n .                                           NOW OPEN, THE NORTH M ID U N D S MOST EXCITING SKI SCENE ,                                                                        00NTF0RG ET— ,
                                                                                         n e e d in g a ro u n d £ 7 5 0 , 0 0 0 .     T h e Millers b o s s is look-              withatmlycomprehensiwedisplayol skiwearandequipmentforladiesandgentlemen.      '     -L                                              PISBELlEViHm |
     ' (No Tenants); 692 London Rd. Westciill on S e a , Essex.                          • . / ‘I th in k w e'll Ju st ha v e to
             . Optional sickness, accident and i edundahcy rover Is                                                                .ing. for t h e s a m e c o m m it­              See 1990 ski wear designs by Nevica,Head.      Talkto the experts-enjoy the Video
           recommended as/cur home is al risk if you do not keep up                      le t th e d u s t settle b e f o re w e    m e n t s h o W n at B u rn d e n
        • . rapaymantson a morlgageor other loan secured on II.                          c a n - s a y exactly w h a t th e                                                       ; and tyro[ia with Boots by Dynafrt and Noidica. and bring your skis for re-waxing^arid
                                                                                                                                    Park from his te a m to m o r ­
                                                                                         c lu b is g o in g to d o , " s a id '                                                     See the latest skis byTTyrolia and Fischer     edge shaping.,
                                                                                                                                    row . .
                                                                                          MrD arnill.         :                       " 'I t's -a big g a m e for us.               with Bindings by Tyiolia.      .. -
           CHARTEREDANDSTATE                                                            - " In t h e ' e n d , hopefully,           B u t if-w a s h o w t h e s a m e
       REGISTERED PHYSIOTHERAPISTS                                                       c o m m o n s e n s e w ill-prevail-' a t t i t u d e a s w e d i d a t B olton
                                                                                          a n d c lu b s will be. a llo w e d - w e s h o u ld . c o m e th ro u g h
       TH E ROTHERHAM                                                                    t o ke e p '-.some te rra cin g, •.ok.                        -v
                                                                                          b e c a u s e .a lo t of ..p e o p le -. ' 'T h e y are a, g o o d team ,
    P H YSIO TH ER A PY A ND                                                            ..don’t w a n t to si t;" V' " •• , t h e y 'v e s p e n t a lo t of
                                                                                                                                                                                  ROBINSONS CARAVANS
                                                                                         • • Cltr J a c k - Carr, t h e ', ■ m o n e y to g e t o u t of th e
    SPORTS IN JU R Y C L IN IC                                                           c h a i r m a n - o f -R oth e rh a m .Th ird Division, rbut -it's a
                                                                                                                                                                                 . Gateford Road, Wprksop, Notts. S61 7AT Tel: (0909) 484750i -

          .Telephone: R otherham                                                         C o u n c i l 's e n v i r o n m e n ta l
                                                                                          h ea lth c o m m itte e ,'sa id th e                                                                                                                  THEM T V ie R e               -TU B
                                                                                                                                                                                        . . . © i T T ^ E t - m X t t R M s Kioee,                                                                       i . . PE Q l- lf iP S ' T b M O G C O W
                              368805                       ;                              Millers w e r e d u e t o be
                                                                                                                                                                                        Pifts S E W 0 0 5                   PW D                & U S C tO E O B . . . M B E d E D
       Opening hours:                                Con su ltatio n                      invited 't o ta k a part'; in' a            D E p C S 9IQ R 9       . ..                      k u st^ T focseT th e.                                       A M a u L ftio c e . t w e c £ . ;
     Mon-Thur’sevenlpgs                                   by                             lia is b n ': c o m m itte e on.                . A O C q V IE R O ^ E O F
                                                                                         g r o u n d li c e n s in g , a lo n g        THOSE D A V S
    and tram mid February                            appointment.
                                                                                         .w i th -t h e c o u n c il a n d - t h e
      Saturday morning.-.
                                                                                         e m e r g e n c y servic es.

- N o p a r t o f this newspaper: m a y b e reprod u ced vyithout th e p rio r written c o rs c n t o f thc
  p ublisher. Printed a n d published b y G A R N E T T D IC K I N S O N - P U B L I S H I N G L T D ; a t
  th e ir registered office, E astw ood W ork s, Fitzw.ilUam R o a d , R o th e rh a m S65 IJU : T elephone
  364721. L o n d o n .Office: 46-47 Ch ancery .Lane W C 2 A U S. T eleph o ne •0I-583-6077;
                             • Registered a s a n e w s p a p e r a t th e Post Office.- ••
•                                        F R I D A Y . F E B 2 , 1990.' .
